* NGSPICE file created from biquad.ext - technology: sky130A

* Black-box entry subcircuit for sky130_fd_sc_hd__decap_4 abstract view
.subckt sky130_fd_sc_hd__decap_4 VGND VNB VPB VPWR
.ends

* Black-box entry subcircuit for sky130_fd_sc_hd__fill_1 abstract view
.subckt sky130_fd_sc_hd__fill_1 VGND VNB VPB VPWR
.ends

* Black-box entry subcircuit for sky130_fd_sc_hd__decap_6 abstract view
.subckt sky130_fd_sc_hd__decap_6 VGND VNB VPB VPWR
.ends

* Black-box entry subcircuit for sky130_fd_sc_hd__xnor2_1 abstract view
.subckt sky130_fd_sc_hd__xnor2_1 A B VGND VNB VPB VPWR Y
.ends

* Black-box entry subcircuit for sky130_fd_sc_hd__a211o_1 abstract view
.subckt sky130_fd_sc_hd__a211o_1 A1 A2 B1 C1 VGND VNB VPB VPWR X
.ends

* Black-box entry subcircuit for sky130_fd_sc_hd__nand2_1 abstract view
.subckt sky130_fd_sc_hd__nand2_1 A B VGND VNB VPB VPWR Y
.ends

* Black-box entry subcircuit for sky130_fd_sc_hd__or2b_1 abstract view
.subckt sky130_fd_sc_hd__or2b_1 A B_N VGND VNB VPB VPWR X
.ends

* Black-box entry subcircuit for sky130_fd_sc_hd__decap_12 abstract view
.subckt sky130_fd_sc_hd__decap_12 VGND VNB VPB VPWR
.ends

* Black-box entry subcircuit for sky130_fd_sc_hd__diode_2 abstract view
.subckt sky130_fd_sc_hd__diode_2 DIODE VGND VNB VPB VPWR
.ends

* Black-box entry subcircuit for sky130_fd_sc_hd__xor2_1 abstract view
.subckt sky130_fd_sc_hd__xor2_1 A B VGND VNB VPB VPWR X
.ends

* Black-box entry subcircuit for sky130_fd_sc_hd__nor2_1 abstract view
.subckt sky130_fd_sc_hd__nor2_1 A B VGND VNB VPB VPWR Y
.ends

* Black-box entry subcircuit for sky130_fd_sc_hd__and2_1 abstract view
.subckt sky130_fd_sc_hd__and2_1 A B VGND VNB VPB VPWR X
.ends

* Black-box entry subcircuit for sky130_fd_sc_hd__dfxtp_1 abstract view
.subckt sky130_fd_sc_hd__dfxtp_1 CLK D VGND VNB VPB VPWR Q
.ends

* Black-box entry subcircuit for sky130_fd_sc_hd__a31o_1 abstract view
.subckt sky130_fd_sc_hd__a31o_1 A1 A2 A3 B1 VGND VNB VPB VPWR X
.ends

* Black-box entry subcircuit for sky130_fd_sc_hd__clkdlybuf4s25_1 abstract view
.subckt sky130_fd_sc_hd__clkdlybuf4s25_1 A VGND VNB VPB VPWR X
.ends

* Black-box entry subcircuit for sky130_fd_sc_hd__mux2_1 abstract view
.subckt sky130_fd_sc_hd__mux2_1 A0 A1 S VGND VNB VPB VPWR X
.ends

* Black-box entry subcircuit for sky130_fd_sc_hd__clkbuf_1 abstract view
.subckt sky130_fd_sc_hd__clkbuf_1 A VGND VNB VPB VPWR X
.ends

* Black-box entry subcircuit for sky130_fd_sc_hd__tapvpwrvgnd_1 abstract view
.subckt sky130_fd_sc_hd__tapvpwrvgnd_1 VGND VPWR
.ends

* Black-box entry subcircuit for sky130_fd_sc_hd__dlymetal6s2s_1 abstract view
.subckt sky130_fd_sc_hd__dlymetal6s2s_1 A VGND VNB VPB VPWR X
.ends

* Black-box entry subcircuit for sky130_fd_sc_hd__a21o_1 abstract view
.subckt sky130_fd_sc_hd__a21o_1 A1 A2 B1 VGND VNB VPB VPWR X
.ends

* Black-box entry subcircuit for sky130_fd_sc_hd__or3b_1 abstract view
.subckt sky130_fd_sc_hd__or3b_1 A B C_N VGND VNB VPB VPWR X
.ends

* Black-box entry subcircuit for sky130_fd_sc_hd__and4bb_1 abstract view
.subckt sky130_fd_sc_hd__and4bb_1 A_N B_N C D VGND VNB VPB VPWR X
.ends

* Black-box entry subcircuit for sky130_fd_sc_hd__o21a_2 abstract view
.subckt sky130_fd_sc_hd__o21a_2 A1 A2 B1 VGND VNB VPB VPWR X
.ends

* Black-box entry subcircuit for sky130_fd_sc_hd__and3_1 abstract view
.subckt sky130_fd_sc_hd__and3_1 A B C VGND VNB VPB VPWR X
.ends

* Black-box entry subcircuit for sky130_fd_sc_hd__decap_8 abstract view
.subckt sky130_fd_sc_hd__decap_8 VGND VNB VPB VPWR
.ends

* Black-box entry subcircuit for sky130_fd_sc_hd__a22oi_1 abstract view
.subckt sky130_fd_sc_hd__a22oi_1 A1 A2 B1 B2 VGND VNB VPB VPWR Y
.ends

* Black-box entry subcircuit for sky130_fd_sc_hd__or3_1 abstract view
.subckt sky130_fd_sc_hd__or3_1 A B C VGND VNB VPB VPWR X
.ends

* Black-box entry subcircuit for sky130_fd_sc_hd__dlygate4sd3_1 abstract view
.subckt sky130_fd_sc_hd__dlygate4sd3_1 A VGND VNB VPB VPWR X
.ends

* Black-box entry subcircuit for sky130_fd_sc_hd__and2b_1 abstract view
.subckt sky130_fd_sc_hd__and2b_1 A_N B VGND VNB VPB VPWR X
.ends

* Black-box entry subcircuit for sky130_fd_sc_hd__a21oi_1 abstract view
.subckt sky130_fd_sc_hd__a21oi_1 A1 A2 B1 VGND VNB VPB VPWR Y
.ends

* Black-box entry subcircuit for sky130_fd_sc_hd__dfrtp_4 abstract view
.subckt sky130_fd_sc_hd__dfrtp_4 CLK D RESET_B VGND VNB VPB VPWR Q
.ends

* Black-box entry subcircuit for sky130_fd_sc_hd__o22a_1 abstract view
.subckt sky130_fd_sc_hd__o22a_1 A1 A2 B1 B2 VGND VNB VPB VPWR X
.ends

* Black-box entry subcircuit for sky130_fd_sc_hd__clkbuf_2 abstract view
.subckt sky130_fd_sc_hd__clkbuf_2 A VGND VNB VPB VPWR X
.ends

* Black-box entry subcircuit for sky130_fd_sc_hd__nand3b_1 abstract view
.subckt sky130_fd_sc_hd__nand3b_1 A_N B C VGND VNB VPB VPWR Y
.ends

* Black-box entry subcircuit for sky130_fd_sc_hd__a21bo_1 abstract view
.subckt sky130_fd_sc_hd__a21bo_1 A1 A2 B1_N VGND VNB VPB VPWR X
.ends

* Black-box entry subcircuit for sky130_fd_sc_hd__nand3_1 abstract view
.subckt sky130_fd_sc_hd__nand3_1 A B C VGND VNB VPB VPWR Y
.ends

* Black-box entry subcircuit for sky130_fd_sc_hd__a22o_1 abstract view
.subckt sky130_fd_sc_hd__a22o_1 A1 A2 B1 B2 VGND VNB VPB VPWR X
.ends

* Black-box entry subcircuit for sky130_fd_sc_hd__fill_2 abstract view
.subckt sky130_fd_sc_hd__fill_2 VGND VNB VPB VPWR
.ends

* Black-box entry subcircuit for sky130_fd_sc_hd__dfrtp_1 abstract view
.subckt sky130_fd_sc_hd__dfrtp_1 CLK D RESET_B VGND VNB VPB VPWR Q
.ends

* Black-box entry subcircuit for sky130_fd_sc_hd__or2_1 abstract view
.subckt sky130_fd_sc_hd__or2_1 A B VGND VNB VPB VPWR X
.ends

* Black-box entry subcircuit for sky130_fd_sc_hd__clkbuf_16 abstract view
.subckt sky130_fd_sc_hd__clkbuf_16 A VGND VNB VPB VPWR X
.ends

* Black-box entry subcircuit for sky130_fd_sc_hd__buf_2 abstract view
.subckt sky130_fd_sc_hd__buf_2 A VGND VNB VPB VPWR X
.ends

* Black-box entry subcircuit for sky130_fd_sc_hd__o21a_1 abstract view
.subckt sky130_fd_sc_hd__o21a_1 A1 A2 B1 VGND VNB VPB VPWR X
.ends

* Black-box entry subcircuit for sky130_fd_sc_hd__o21ai_1 abstract view
.subckt sky130_fd_sc_hd__o21ai_1 A1 A2 B1 VGND VNB VPB VPWR Y
.ends

* Black-box entry subcircuit for sky130_fd_sc_hd__clkdlybuf4s50_1 abstract view
.subckt sky130_fd_sc_hd__clkdlybuf4s50_1 A VGND VNB VPB VPWR X
.ends

* Black-box entry subcircuit for sky130_fd_sc_hd__conb_1 abstract view
.subckt sky130_fd_sc_hd__conb_1 VGND VNB VPB VPWR HI LO
.ends

* Black-box entry subcircuit for sky130_fd_sc_hd__decap_3 abstract view
.subckt sky130_fd_sc_hd__decap_3 VGND VNB VPB VPWR
.ends

* Black-box entry subcircuit for sky130_fd_sc_hd__clkbuf_4 abstract view
.subckt sky130_fd_sc_hd__clkbuf_4 A VGND VNB VPB VPWR X
.ends

* Black-box entry subcircuit for sky130_fd_sc_hd__o31a_1 abstract view
.subckt sky130_fd_sc_hd__o31a_1 A1 A2 A3 B1 VGND VNB VPB VPWR X
.ends

* Black-box entry subcircuit for sky130_fd_sc_hd__inv_2 abstract view
.subckt sky130_fd_sc_hd__inv_2 A VGND VNB VPB VPWR Y
.ends

* Black-box entry subcircuit for sky130_fd_sc_hd__o2bb2a_1 abstract view
.subckt sky130_fd_sc_hd__o2bb2a_1 A1_N A2_N B1 B2 VGND VNB VPB VPWR X
.ends

* Black-box entry subcircuit for sky130_fd_sc_hd__and4_1 abstract view
.subckt sky130_fd_sc_hd__and4_1 A B C D VGND VNB VPB VPWR X
.ends

* Black-box entry subcircuit for sky130_fd_sc_hd__o21bai_1 abstract view
.subckt sky130_fd_sc_hd__o21bai_1 A1 A2 B1_N VGND VNB VPB VPWR Y
.ends

* Black-box entry subcircuit for sky130_fd_sc_hd__a21o_2 abstract view
.subckt sky130_fd_sc_hd__a21o_2 A1 A2 B1 VGND VNB VPB VPWR X
.ends

* Black-box entry subcircuit for sky130_fd_sc_hd__or4_1 abstract view
.subckt sky130_fd_sc_hd__or4_1 A B C D VGND VNB VPB VPWR X
.ends

* Black-box entry subcircuit for sky130_fd_sc_hd__a21boi_1 abstract view
.subckt sky130_fd_sc_hd__a21boi_1 A1 A2 B1_N VGND VNB VPB VPWR Y
.ends

* Black-box entry subcircuit for sky130_fd_sc_hd__o211a_1 abstract view
.subckt sky130_fd_sc_hd__o211a_1 A1 A2 B1 C1 VGND VNB VPB VPWR X
.ends

* Black-box entry subcircuit for sky130_fd_sc_hd__and3b_1 abstract view
.subckt sky130_fd_sc_hd__and3b_1 A_N B C VGND VNB VPB VPWR X
.ends

* Black-box entry subcircuit for sky130_fd_sc_hd__a221o_1 abstract view
.subckt sky130_fd_sc_hd__a221o_1 A1 A2 B1 B2 C1 VGND VNB VPB VPWR X
.ends

* Black-box entry subcircuit for sky130_fd_sc_hd__nor3b_1 abstract view
.subckt sky130_fd_sc_hd__nor3b_1 A B C_N VGND VNB VPB VPWR Y
.ends

* Black-box entry subcircuit for sky130_fd_sc_hd__a41o_1 abstract view
.subckt sky130_fd_sc_hd__a41o_1 A1 A2 A3 A4 B1 VGND VNB VPB VPWR X
.ends

* Black-box entry subcircuit for sky130_fd_sc_hd__a31oi_4 abstract view
.subckt sky130_fd_sc_hd__a31oi_4 A1 A2 A3 B1 VGND VNB VPB VPWR Y
.ends

* Black-box entry subcircuit for sky130_fd_sc_hd__nand2_2 abstract view
.subckt sky130_fd_sc_hd__nand2_2 A B VGND VNB VPB VPWR Y
.ends

* Black-box entry subcircuit for sky130_fd_sc_hd__a2bb2oi_1 abstract view
.subckt sky130_fd_sc_hd__a2bb2oi_1 A1_N A2_N B1 B2 VGND VNB VPB VPWR Y
.ends

* Black-box entry subcircuit for sky130_fd_sc_hd__buf_4 abstract view
.subckt sky130_fd_sc_hd__buf_4 A VGND VNB VPB VPWR X
.ends

* Black-box entry subcircuit for sky130_fd_sc_hd__nor3_1 abstract view
.subckt sky130_fd_sc_hd__nor3_1 A B C VGND VNB VPB VPWR Y
.ends

* Black-box entry subcircuit for sky130_fd_sc_hd__o2bb2ai_1 abstract view
.subckt sky130_fd_sc_hd__o2bb2ai_1 A1_N A2_N B1 B2 VGND VNB VPB VPWR Y
.ends

* Black-box entry subcircuit for sky130_fd_sc_hd__a21oi_2 abstract view
.subckt sky130_fd_sc_hd__a21oi_2 A1 A2 B1 VGND VNB VPB VPWR Y
.ends

* Black-box entry subcircuit for sky130_fd_sc_hd__xnor2_2 abstract view
.subckt sky130_fd_sc_hd__xnor2_2 A B VGND VNB VPB VPWR Y
.ends

* Black-box entry subcircuit for sky130_fd_sc_hd__nand3_2 abstract view
.subckt sky130_fd_sc_hd__nand3_2 A B C VGND VNB VPB VPWR Y
.ends

* Black-box entry subcircuit for sky130_fd_sc_hd__nand4_1 abstract view
.subckt sky130_fd_sc_hd__nand4_1 A B C D VGND VNB VPB VPWR Y
.ends

* Black-box entry subcircuit for sky130_fd_sc_hd__or4_2 abstract view
.subckt sky130_fd_sc_hd__or4_2 A B C D VGND VNB VPB VPWR X
.ends

* Black-box entry subcircuit for sky130_fd_sc_hd__o41a_1 abstract view
.subckt sky130_fd_sc_hd__o41a_1 A1 A2 A3 A4 B1 VGND VNB VPB VPWR X
.ends

* Black-box entry subcircuit for sky130_fd_sc_hd__o21ba_1 abstract view
.subckt sky130_fd_sc_hd__o21ba_1 A1 A2 B1_N VGND VNB VPB VPWR X
.ends

* Black-box entry subcircuit for sky130_fd_sc_hd__xor2_2 abstract view
.subckt sky130_fd_sc_hd__xor2_2 A B VGND VNB VPB VPWR X
.ends

* Black-box entry subcircuit for sky130_fd_sc_hd__xor2_4 abstract view
.subckt sky130_fd_sc_hd__xor2_4 A B VGND VNB VPB VPWR X
.ends

* Black-box entry subcircuit for sky130_fd_sc_hd__dfxtp_2 abstract view
.subckt sky130_fd_sc_hd__dfxtp_2 CLK D VGND VNB VPB VPWR Q
.ends

* Black-box entry subcircuit for sky130_fd_sc_hd__dfrtp_2 abstract view
.subckt sky130_fd_sc_hd__dfrtp_2 CLK D RESET_B VGND VNB VPB VPWR Q
.ends

* Black-box entry subcircuit for sky130_fd_sc_hd__or3_2 abstract view
.subckt sky130_fd_sc_hd__or3_2 A B C VGND VNB VPB VPWR X
.ends

* Black-box entry subcircuit for sky130_fd_sc_hd__a22oi_2 abstract view
.subckt sky130_fd_sc_hd__a22oi_2 A1 A2 B1 B2 VGND VNB VPB VPWR Y
.ends

* Black-box entry subcircuit for sky130_fd_sc_hd__o221a_2 abstract view
.subckt sky130_fd_sc_hd__o221a_2 A1 A2 B1 B2 C1 VGND VNB VPB VPWR X
.ends

* Black-box entry subcircuit for sky130_fd_sc_hd__a31oi_2 abstract view
.subckt sky130_fd_sc_hd__a31oi_2 A1 A2 A3 B1 VGND VNB VPB VPWR Y
.ends

* Black-box entry subcircuit for sky130_fd_sc_hd__a31oi_1 abstract view
.subckt sky130_fd_sc_hd__a31oi_1 A1 A2 A3 B1 VGND VNB VPB VPWR Y
.ends

* Black-box entry subcircuit for sky130_fd_sc_hd__o221a_1 abstract view
.subckt sky130_fd_sc_hd__o221a_1 A1 A2 B1 B2 C1 VGND VNB VPB VPWR X
.ends

* Black-box entry subcircuit for sky130_fd_sc_hd__o21bai_2 abstract view
.subckt sky130_fd_sc_hd__o21bai_2 A1 A2 B1_N VGND VNB VPB VPWR Y
.ends

* Black-box entry subcircuit for sky130_fd_sc_hd__a211oi_2 abstract view
.subckt sky130_fd_sc_hd__a211oi_2 A1 A2 B1 C1 VGND VNB VPB VPWR Y
.ends

* Black-box entry subcircuit for sky130_fd_sc_hd__o311a_1 abstract view
.subckt sky130_fd_sc_hd__o311a_1 A1 A2 A3 B1 C1 VGND VNB VPB VPWR X
.ends

* Black-box entry subcircuit for sky130_fd_sc_hd__a32o_1 abstract view
.subckt sky130_fd_sc_hd__a32o_1 A1 A2 A3 B1 B2 VGND VNB VPB VPWR X
.ends

* Black-box entry subcircuit for sky130_fd_sc_hd__clkinv_2 abstract view
.subckt sky130_fd_sc_hd__clkinv_2 A VGND VNB VPB VPWR Y
.ends

* Black-box entry subcircuit for sky130_fd_sc_hd__buf_1 abstract view
.subckt sky130_fd_sc_hd__buf_1 A VGND VNB VPB VPWR X
.ends

* Black-box entry subcircuit for sky130_fd_sc_hd__and2_2 abstract view
.subckt sky130_fd_sc_hd__and2_2 A B VGND VNB VPB VPWR X
.ends

* Black-box entry subcircuit for sky130_fd_sc_hd__a311oi_4 abstract view
.subckt sky130_fd_sc_hd__a311oi_4 A1 A2 A3 B1 C1 VGND VNB VPB VPWR Y
.ends

* Black-box entry subcircuit for sky130_fd_sc_hd__or2_2 abstract view
.subckt sky130_fd_sc_hd__or2_2 A B VGND VNB VPB VPWR X
.ends

* Black-box entry subcircuit for sky130_fd_sc_hd__nor2b_1 abstract view
.subckt sky130_fd_sc_hd__nor2b_1 A B_N VGND VNB VPB VPWR Y
.ends

* Black-box entry subcircuit for sky130_fd_sc_hd__a2111o_1 abstract view
.subckt sky130_fd_sc_hd__a2111o_1 A1 A2 B1 C1 D1 VGND VNB VPB VPWR X
.ends

* Black-box entry subcircuit for sky130_fd_sc_hd__a311o_1 abstract view
.subckt sky130_fd_sc_hd__a311o_1 A1 A2 A3 B1 C1 VGND VNB VPB VPWR X
.ends

* Black-box entry subcircuit for sky130_fd_sc_hd__buf_6 abstract view
.subckt sky130_fd_sc_hd__buf_6 A VGND VNB VPB VPWR X
.ends

* Black-box entry subcircuit for sky130_fd_sc_hd__a21oi_4 abstract view
.subckt sky130_fd_sc_hd__a21oi_4 A1 A2 B1 VGND VNB VPB VPWR Y
.ends

* Black-box entry subcircuit for sky130_fd_sc_hd__buf_8 abstract view
.subckt sky130_fd_sc_hd__buf_8 A VGND VNB VPB VPWR X
.ends

* Black-box entry subcircuit for sky130_fd_sc_hd__o211ai_1 abstract view
.subckt sky130_fd_sc_hd__o211ai_1 A1 A2 B1 C1 VGND VNB VPB VPWR Y
.ends

* Black-box entry subcircuit for sky130_fd_sc_hd__and4b_1 abstract view
.subckt sky130_fd_sc_hd__and4b_1 A_N B C D VGND VNB VPB VPWR X
.ends

* Black-box entry subcircuit for sky130_fd_sc_hd__a2bb2o_1 abstract view
.subckt sky130_fd_sc_hd__a2bb2o_1 A1_N A2_N B1 B2 VGND VNB VPB VPWR X
.ends

* Black-box entry subcircuit for sky130_fd_sc_hd__a21boi_2 abstract view
.subckt sky130_fd_sc_hd__a21boi_2 A1 A2 B1_N VGND VNB VPB VPWR Y
.ends

* Black-box entry subcircuit for sky130_fd_sc_hd__o2111a_1 abstract view
.subckt sky130_fd_sc_hd__o2111a_1 A1 A2 B1 C1 D1 VGND VNB VPB VPWR X
.ends

* Black-box entry subcircuit for sky130_fd_sc_hd__o32a_1 abstract view
.subckt sky130_fd_sc_hd__o32a_1 A1 A2 A3 B1 B2 VGND VNB VPB VPWR X
.ends

* Black-box entry subcircuit for sky130_fd_sc_hd__nand3b_2 abstract view
.subckt sky130_fd_sc_hd__nand3b_2 A_N B C VGND VNB VPB VPWR Y
.ends

* Black-box entry subcircuit for sky130_fd_sc_hd__xnor2_4 abstract view
.subckt sky130_fd_sc_hd__xnor2_4 A B VGND VNB VPB VPWR Y
.ends

* Black-box entry subcircuit for sky130_fd_sc_hd__clkbuf_8 abstract view
.subckt sky130_fd_sc_hd__clkbuf_8 A VGND VNB VPB VPWR X
.ends

* Black-box entry subcircuit for sky130_fd_sc_hd__or4b_1 abstract view
.subckt sky130_fd_sc_hd__or4b_1 A B C D_N VGND VNB VPB VPWR X
.ends

* Black-box entry subcircuit for sky130_fd_sc_hd__nor2_2 abstract view
.subckt sky130_fd_sc_hd__nor2_2 A B VGND VNB VPB VPWR Y
.ends

* Black-box entry subcircuit for sky130_fd_sc_hd__a2111oi_2 abstract view
.subckt sky130_fd_sc_hd__a2111oi_2 A1 A2 B1 C1 D1 VGND VNB VPB VPWR Y
.ends

* Black-box entry subcircuit for sky130_fd_sc_hd__o31ai_1 abstract view
.subckt sky130_fd_sc_hd__o31ai_1 A1 A2 A3 B1 VGND VNB VPB VPWR Y
.ends

* Black-box entry subcircuit for sky130_fd_sc_hd__a32oi_1 abstract view
.subckt sky130_fd_sc_hd__a32oi_1 A1 A2 A3 B1 B2 VGND VNB VPB VPWR Y
.ends

.subckt biquad a11[0] a11[1] a11[2] a11[3] a11[4] a11[5] a11[6] a11[7] a11[8] a11[9]
+ a12[0] a12[1] a12[2] a12[3] a12[4] a12[5] a12[6] a12[7] a12[8] a12[9] b10[0] b10[1]
+ b10[2] b10[3] b10[4] b10[5] b10[6] b10[7] b10[8] b10[9] b11[0] b11[1] b11[2] b11[3]
+ b11[4] b11[5] b11[6] b11[7] b11[8] b11[9] b12[0] b12[1] b12[2] b12[3] b12[4] b12[5]
+ b12[6] b12[7] b12[8] b12[9] clk enable nreset valid vccd1 vssd1 x[0] x[1] x[2] x[3]
+ x[4] x[5] x[6] x[7] x[8] x[9] yout[0] yout[1] yout[2] yout[3] yout[4] yout[5] yout[6]
+ yout[7] yout[8] yout[9]
XFILLER_67_531 vssd1 vssd1 vccd1 vccd1 sky130_fd_sc_hd__decap_4
XFILLER_67_520 vssd1 vssd1 vccd1 vccd1 sky130_fd_sc_hd__decap_4
XFILLER_27_417 vssd1 vssd1 vccd1 vccd1 sky130_fd_sc_hd__fill_1
XFILLER_39_255 vssd1 vssd1 vccd1 vccd1 sky130_fd_sc_hd__decap_4
XFILLER_94_394 vssd1 vssd1 vccd1 vccd1 sky130_fd_sc_hd__decap_6
X_7963_ _7963_/A _7963_/B vssd1 vssd1 vccd1 vccd1 _7963_/Y sky130_fd_sc_hd__xnor2_1
XFILLER_39_299 vssd1 vssd1 vccd1 vccd1 sky130_fd_sc_hd__decap_4
XFILLER_82_567 vssd1 vssd1 vccd1 vccd1 sky130_fd_sc_hd__decap_4
X_6914_ _6893_/A _6891_/Y _6900_/A _6892_/A vssd1 vssd1 vccd1 vccd1 _6915_/B sky130_fd_sc_hd__a211o_1
X_7894_ _7913_/A _7894_/B vssd1 vssd1 vccd1 vccd1 _7894_/Y sky130_fd_sc_hd__nand2_1
XFILLER_70_729 vssd1 vssd1 vccd1 vccd1 sky130_fd_sc_hd__fill_1
XFILLER_35_472 vssd1 vssd1 vccd1 vccd1 sky130_fd_sc_hd__decap_4
XFILLER_62_291 vssd1 vssd1 vccd1 vccd1 sky130_fd_sc_hd__fill_1
X_6845_ _6845_/A _6844_/X vssd1 vssd1 vccd1 vccd1 _6847_/A sky130_fd_sc_hd__or2b_1
XFILLER_52_29 vssd1 vssd1 vccd1 vccd1 sky130_fd_sc_hd__decap_12
XANTENNA__3994__A3 _3996_/C vssd1 vssd1 vccd1 vccd1 sky130_fd_sc_hd__diode_2
XFILLER_22_133 vssd1 vssd1 vccd1 vccd1 sky130_fd_sc_hd__decap_6
XFILLER_23_634 vssd1 vssd1 vccd1 vccd1 sky130_fd_sc_hd__fill_1
XFILLER_23_645 vssd1 vssd1 vccd1 vccd1 sky130_fd_sc_hd__decap_4
X_3988_ input9/X _3988_/B vssd1 vssd1 vccd1 vccd1 _8769_/D sky130_fd_sc_hd__xor2_1
X_6776_ _6776_/A _6776_/B vssd1 vssd1 vccd1 vccd1 _6778_/B sky130_fd_sc_hd__nor2_1
X_5727_ _5727_/A _8451_/Q vssd1 vssd1 vccd1 vccd1 _5728_/A sky130_fd_sc_hd__and2_1
X_8515_ _8778_/CLK _8515_/D vssd1 vssd1 vccd1 vccd1 _8515_/Q sky130_fd_sc_hd__dfxtp_1
XFILLER_22_177 vssd1 vssd1 vccd1 vccd1 sky130_fd_sc_hd__decap_12
X_8446_ _8451_/CLK _8446_/D vssd1 vssd1 vccd1 vccd1 _8446_/Q sky130_fd_sc_hd__dfxtp_1
X_5658_ _5658_/A _5662_/B vssd1 vssd1 vccd1 vccd1 _5659_/A sky130_fd_sc_hd__and2_1
XFILLER_123_208 vssd1 vssd1 vccd1 vccd1 sky130_fd_sc_hd__decap_4
X_8377_ _8449_/CLK _8377_/D vssd1 vssd1 vccd1 vccd1 _8377_/Q sky130_fd_sc_hd__dfxtp_1
X_4609_ _4599_/A _4600_/A _4599_/B _4596_/A vssd1 vssd1 vccd1 vccd1 _4610_/B sky130_fd_sc_hd__a31o_1
X_5589_ _8667_/Q _8679_/Q vssd1 vssd1 vccd1 vccd1 _5590_/B sky130_fd_sc_hd__nand2_1
XFILLER_117_783 vssd1 vssd1 vccd1 vccd1 sky130_fd_sc_hd__fill_1
Xhold340 _8222_/Q vssd1 vssd1 vccd1 vccd1 _8255_/D sky130_fd_sc_hd__clkdlybuf4s25_1
Xhold362 _8616_/Q vssd1 vssd1 vccd1 vccd1 _8635_/D sky130_fd_sc_hd__clkdlybuf4s25_1
X_7328_ _8006_/Q _7327_/Y _7372_/S vssd1 vssd1 vccd1 vccd1 _7329_/A sky130_fd_sc_hd__mux2_1
Xhold351 _8076_/Q vssd1 vssd1 vccd1 vccd1 _8124_/D sky130_fd_sc_hd__clkdlybuf4s25_1
Xhold395 _8619_/Q vssd1 vssd1 vccd1 vccd1 _8638_/D sky130_fd_sc_hd__clkdlybuf4s25_1
X_7259_ _7259_/A vssd1 vssd1 vccd1 vccd1 _8000_/D sky130_fd_sc_hd__clkbuf_1
Xhold384 _8166_/Q vssd1 vssd1 vccd1 vccd1 _8184_/D sky130_fd_sc_hd__clkdlybuf4s25_1
Xhold373 _8463_/Q vssd1 vssd1 vccd1 vccd1 _8535_/D sky130_fd_sc_hd__clkdlybuf4s25_1
XFILLER_131_252 vssd1 vssd1 vccd1 vccd1 sky130_fd_sc_hd__decap_4
XANTENNA__5006__A _8450_/Q vssd1 vssd1 vccd1 vccd1 sky130_fd_sc_hd__diode_2
XFILLER_92_309 vssd1 vssd1 vccd1 vccd1 sky130_fd_sc_hd__decap_4
XFILLER_85_361 vssd1 vssd1 vccd1 vccd1 sky130_fd_sc_hd__decap_6
XFILLER_58_553 vssd1 vssd1 vccd1 vccd1 sky130_fd_sc_hd__fill_1
XFILLER_46_726 vssd1 vssd1 vccd1 vccd1 sky130_fd_sc_hd__decap_4
XFILLER_45_225 vssd1 vssd1 vccd1 vccd1 sky130_fd_sc_hd__fill_1
XTAP_1800 vssd1 vccd1 sky130_fd_sc_hd__tapvpwrvgnd_1
XFILLER_26_41 vssd1 vssd1 vccd1 vccd1 sky130_fd_sc_hd__decap_12
XTAP_1833 vssd1 vccd1 sky130_fd_sc_hd__tapvpwrvgnd_1
XTAP_1822 vssd1 vccd1 sky130_fd_sc_hd__tapvpwrvgnd_1
XTAP_1811 vssd1 vccd1 sky130_fd_sc_hd__tapvpwrvgnd_1
XFILLER_54_770 vssd1 vssd1 vccd1 vccd1 sky130_fd_sc_hd__decap_4
XFILLER_14_612 vssd1 vssd1 vccd1 vccd1 sky130_fd_sc_hd__decap_4
XFILLER_26_472 vssd1 vssd1 vccd1 vccd1 sky130_fd_sc_hd__decap_4
XTAP_1855 vssd1 vccd1 sky130_fd_sc_hd__tapvpwrvgnd_1
XTAP_1866 vssd1 vccd1 sky130_fd_sc_hd__tapvpwrvgnd_1
XTAP_1844 vssd1 vccd1 sky130_fd_sc_hd__tapvpwrvgnd_1
XFILLER_13_111 vssd1 vssd1 vccd1 vccd1 sky130_fd_sc_hd__fill_1
XFILLER_26_85 vssd1 vssd1 vccd1 vccd1 sky130_fd_sc_hd__decap_12
XTAP_1899 vssd1 vccd1 sky130_fd_sc_hd__tapvpwrvgnd_1
XTAP_1888 vssd1 vccd1 sky130_fd_sc_hd__tapvpwrvgnd_1
XTAP_1877 vssd1 vccd1 sky130_fd_sc_hd__tapvpwrvgnd_1
XFILLER_9_137 vssd1 vssd1 vccd1 vccd1 sky130_fd_sc_hd__decap_12
XFILLER_115_709 vssd1 vssd1 vccd1 vccd1 sky130_fd_sc_hd__decap_12
XANTENNA__4698__A1 _4702_/A vssd1 vssd1 vccd1 vccd1 sky130_fd_sc_hd__diode_2
XFILLER_123_753 vssd1 vssd1 vccd1 vccd1 sky130_fd_sc_hd__decap_12
XANTENNA__7115__B _7117_/B vssd1 vssd1 vccd1 vccd1 sky130_fd_sc_hd__diode_2
XFILLER_96_615 vssd1 vssd1 vccd1 vccd1 sky130_fd_sc_hd__decap_4
XFILLER_122_296 vssd1 vssd1 vccd1 vccd1 sky130_fd_sc_hd__decap_4
XFILLER_1_593 vssd1 vssd1 vccd1 vccd1 sky130_fd_sc_hd__decap_4
XFILLER_67_81 vssd1 vssd1 vccd1 vccd1 sky130_fd_sc_hd__decap_12
XFILLER_76_394 vssd1 vssd1 vccd1 vccd1 sky130_fd_sc_hd__decap_6
XFILLER_64_567 vssd1 vssd1 vccd1 vccd1 sky130_fd_sc_hd__decap_4
XFILLER_36_236 vssd1 vssd1 vccd1 vccd1 sky130_fd_sc_hd__decap_4
X_4960_ _6353_/A _4976_/B vssd1 vssd1 vccd1 vccd1 _4966_/A sky130_fd_sc_hd__nand2_1
XFILLER_51_206 vssd1 vssd1 vccd1 vccd1 sky130_fd_sc_hd__fill_1
XFILLER_17_461 vssd1 vssd1 vccd1 vccd1 sky130_fd_sc_hd__fill_1
XFILLER_17_483 vssd1 vssd1 vccd1 vccd1 sky130_fd_sc_hd__decap_4
X_4891_ _8184_/Q vssd1 vssd1 vccd1 vccd1 _4951_/B sky130_fd_sc_hd__dlymetal6s2s_1
XFILLER_60_751 vssd1 vssd1 vccd1 vccd1 sky130_fd_sc_hd__decap_4
X_6630_ _6642_/A _6630_/B vssd1 vssd1 vccd1 vccd1 _6633_/A sky130_fd_sc_hd__xnor2_1
XANTENNA__8060__RESET_B input52/X vssd1 vssd1 vccd1 vccd1 sky130_fd_sc_hd__diode_2
XFILLER_32_453 vssd1 vssd1 vccd1 vccd1 sky130_fd_sc_hd__decap_6
X_6561_ _6561_/A _6561_/B vssd1 vssd1 vccd1 vccd1 _6568_/B sky130_fd_sc_hd__nor2_1
XANTENNA__7572__B1 _7133_/A vssd1 vssd1 vccd1 vccd1 sky130_fd_sc_hd__diode_2
X_5512_ _5509_/Y _5510_/Y _5511_/X vssd1 vssd1 vccd1 vccd1 _5522_/B sky130_fd_sc_hd__a21o_1
X_8300_ _8318_/CLK _8300_/D vssd1 vssd1 vccd1 vccd1 _8300_/Q sky130_fd_sc_hd__dfxtp_1
XFILLER_20_659 vssd1 vssd1 vccd1 vccd1 sky130_fd_sc_hd__decap_4
X_6492_ _6492_/A _6492_/B _6490_/Y vssd1 vssd1 vccd1 vccd1 _6493_/B sky130_fd_sc_hd__or3b_1
X_8231_ _8403_/CLK _8231_/D vssd1 vssd1 vccd1 vccd1 _8231_/Q sky130_fd_sc_hd__dfxtp_1
X_5443_ _5443_/A _5443_/B vssd1 vssd1 vccd1 vccd1 _5452_/B sky130_fd_sc_hd__nand2_1
X_8162_ _8775_/CLK _8162_/D vssd1 vssd1 vccd1 vccd1 _8162_/Q sky130_fd_sc_hd__dfxtp_1
X_5374_ _5375_/A _5373_/Y _5374_/C _8177_/Q vssd1 vssd1 vccd1 vccd1 _6816_/A sky130_fd_sc_hd__and4bb_1
X_7113_ _8419_/Q _7045_/B _7045_/A vssd1 vssd1 vccd1 vccd1 _7114_/B sky130_fd_sc_hd__o21a_2
X_4325_ _4325_/A _5551_/A _4325_/C vssd1 vssd1 vccd1 vccd1 _4349_/A sky130_fd_sc_hd__and3_1
XFILLER_113_263 vssd1 vssd1 vccd1 vccd1 sky130_fd_sc_hd__fill_1
XFILLER_87_626 vssd1 vssd1 vccd1 vccd1 sky130_fd_sc_hd__decap_4
XFILLER_59_328 vssd1 vssd1 vccd1 vccd1 sky130_fd_sc_hd__decap_8
X_8093_ _8101_/CLK _8093_/D vssd1 vssd1 vccd1 vccd1 _8093_/Q sky130_fd_sc_hd__dfxtp_1
X_4256_ _5055_/A _5727_/A _5706_/A _5729_/A vssd1 vssd1 vccd1 vccd1 _4258_/A sky130_fd_sc_hd__a22oi_1
X_7044_ _8417_/Q _8418_/Q _7044_/C vssd1 vssd1 vccd1 vccd1 _7045_/B sky130_fd_sc_hd__or3_1
X_4187_ _4187_/A _4187_/B vssd1 vssd1 vccd1 vccd1 _4188_/B sky130_fd_sc_hd__xnor2_1
XFILLER_74_309 vssd1 vssd1 vccd1 vccd1 sky130_fd_sc_hd__fill_1
XFILLER_94_180 vssd1 vssd1 vccd1 vccd1 sky130_fd_sc_hd__decap_4
XANTENNA__8830__RESET_B input52/X vssd1 vssd1 vccd1 vccd1 sky130_fd_sc_hd__diode_2
XFILLER_67_372 vssd1 vssd1 vccd1 vccd1 sky130_fd_sc_hd__decap_4
XFILLER_55_523 vssd1 vssd1 vccd1 vccd1 sky130_fd_sc_hd__decap_4
XFILLER_27_225 vssd1 vssd1 vccd1 vccd1 sky130_fd_sc_hd__decap_12
XFILLER_103_35 vssd1 vssd1 vccd1 vccd1 sky130_fd_sc_hd__fill_1
XFILLER_43_707 vssd1 vssd1 vccd1 vccd1 sky130_fd_sc_hd__decap_4
XANTENNA__4384__B _5439_/A vssd1 vssd1 vccd1 vccd1 sky130_fd_sc_hd__diode_2
XFILLER_15_409 vssd1 vssd1 vccd1 vccd1 sky130_fd_sc_hd__decap_4
XFILLER_27_258 vssd1 vssd1 vccd1 vccd1 sky130_fd_sc_hd__decap_4
XFILLER_82_386 vssd1 vssd1 vccd1 vccd1 sky130_fd_sc_hd__decap_4
XFILLER_70_526 vssd1 vssd1 vccd1 vccd1 sky130_fd_sc_hd__decap_6
X_7946_ _8826_/Q _7665_/X _7945_/X vssd1 vssd1 vccd1 vccd1 _8826_/D sky130_fd_sc_hd__a21o_1
XTAP_1118 vssd1 vccd1 sky130_fd_sc_hd__tapvpwrvgnd_1
XTAP_1129 vssd1 vccd1 sky130_fd_sc_hd__tapvpwrvgnd_1
XTAP_1107 vssd1 vccd1 sky130_fd_sc_hd__tapvpwrvgnd_1
X_7877_ _8290_/Q _7877_/B vssd1 vssd1 vccd1 vccd1 _7885_/B sky130_fd_sc_hd__xnor2_1
XFILLER_51_740 vssd1 vssd1 vccd1 vccd1 sky130_fd_sc_hd__fill_1
X_6828_ _6828_/A _6828_/B vssd1 vssd1 vccd1 vccd1 _8499_/D sky130_fd_sc_hd__xnor2_1
X_6759_ _6770_/A _6759_/B vssd1 vssd1 vccd1 vccd1 _8344_/D sky130_fd_sc_hd__nor2_1
XFILLER_109_503 vssd1 vssd1 vccd1 vccd1 sky130_fd_sc_hd__fill_1
XFILLER_109_536 vssd1 vssd1 vccd1 vccd1 sky130_fd_sc_hd__decap_4
X_8429_ _8449_/CLK hold63/X vssd1 vssd1 vccd1 vccd1 _8447_/D sky130_fd_sc_hd__dfxtp_1
XFILLER_12_65 vssd1 vssd1 vccd1 vccd1 sky130_fd_sc_hd__decap_12
XFILLER_128_65 vssd1 vssd1 vccd1 vccd1 sky130_fd_sc_hd__decap_12
XFILLER_105_753 vssd1 vssd1 vccd1 vccd1 sky130_fd_sc_hd__decap_12
Xhold170 hold170/A vssd1 vssd1 vccd1 vccd1 hold171/A sky130_fd_sc_hd__dlygate4sd3_1
XFILLER_2_357 vssd1 vssd1 vccd1 vccd1 sky130_fd_sc_hd__decap_6
XFILLER_132_583 vssd1 vssd1 vccd1 vccd1 sky130_fd_sc_hd__decap_4
XFILLER_120_701 vssd1 vssd1 vccd1 vccd1 sky130_fd_sc_hd__decap_12
XFILLER_78_637 vssd1 vssd1 vccd1 vccd1 sky130_fd_sc_hd__decap_6
Xhold192 _4089_/X vssd1 vssd1 vccd1 vccd1 hold193/A sky130_fd_sc_hd__dlygate4sd3_1
Xhold181 hold181/A vssd1 vssd1 vccd1 vccd1 hold182/A sky130_fd_sc_hd__dlygate4sd3_1
XANTENNA__8822__CLK _8822_/CLK vssd1 vssd1 vccd1 vccd1 sky130_fd_sc_hd__diode_2
XANTENNA__7094__A2 _7956_/A vssd1 vssd1 vccd1 vccd1 sky130_fd_sc_hd__diode_2
XFILLER_78_648 vssd1 vssd1 vccd1 vccd1 sky130_fd_sc_hd__decap_4
XFILLER_77_169 vssd1 vssd1 vccd1 vccd1 sky130_fd_sc_hd__fill_1
XFILLER_92_139 vssd1 vssd1 vccd1 vccd1 sky130_fd_sc_hd__fill_1
XFILLER_73_320 vssd1 vssd1 vccd1 vccd1 sky130_fd_sc_hd__decap_4
XFILLER_19_737 vssd1 vssd1 vccd1 vccd1 sky130_fd_sc_hd__decap_4
XFILLER_37_51 vssd1 vssd1 vccd1 vccd1 sky130_fd_sc_hd__decap_4
XFILLER_33_217 vssd1 vssd1 vccd1 vccd1 sky130_fd_sc_hd__decap_6
XTAP_1641 vssd1 vccd1 sky130_fd_sc_hd__tapvpwrvgnd_1
XTAP_1630 vssd1 vccd1 sky130_fd_sc_hd__tapvpwrvgnd_1
XTAP_1674 vssd1 vccd1 sky130_fd_sc_hd__tapvpwrvgnd_1
XTAP_1685 vssd1 vccd1 sky130_fd_sc_hd__tapvpwrvgnd_1
XTAP_1663 vssd1 vccd1 sky130_fd_sc_hd__tapvpwrvgnd_1
XTAP_1652 vssd1 vccd1 sky130_fd_sc_hd__tapvpwrvgnd_1
XTAP_1696 vssd1 vccd1 sky130_fd_sc_hd__tapvpwrvgnd_1
XFILLER_41_261 vssd1 vssd1 vccd1 vccd1 sky130_fd_sc_hd__decap_8
XFILLER_6_696 vssd1 vssd1 vccd1 vccd1 sky130_fd_sc_hd__decap_4
XFILLER_123_561 vssd1 vssd1 vccd1 vccd1 sky130_fd_sc_hd__decap_4
XFILLER_68_103 vssd1 vssd1 vccd1 vccd1 sky130_fd_sc_hd__decap_4
X_5090_ _5723_/A _5090_/B _5090_/C vssd1 vssd1 vccd1 vccd1 _6581_/A sky130_fd_sc_hd__and3_1
X_4110_ _8191_/Q _8383_/Q _4105_/B _4103_/X vssd1 vssd1 vccd1 vccd1 _4111_/B sky130_fd_sc_hd__a31o_1
XFILLER_78_80 vssd1 vssd1 vccd1 vccd1 sky130_fd_sc_hd__decap_4
X_4041_ _4041_/A _4041_/B vssd1 vssd1 vccd1 vccd1 _8308_/D sky130_fd_sc_hd__xnor2_1
XFILLER_84_618 vssd1 vssd1 vccd1 vccd1 sky130_fd_sc_hd__decap_6
XFILLER_68_169 vssd1 vssd1 vccd1 vccd1 sky130_fd_sc_hd__decap_4
X_5992_ _5990_/Y _5992_/B vssd1 vssd1 vccd1 vccd1 _5993_/B sky130_fd_sc_hd__and2b_1
X_7800_ _7799_/A _7799_/B _7799_/C vssd1 vssd1 vccd1 vccd1 _7809_/B sky130_fd_sc_hd__a21oi_1
X_8780_ _8782_/CLK _8780_/D input52/X vssd1 vssd1 vccd1 vccd1 _8780_/Q sky130_fd_sc_hd__dfrtp_4
X_7731_ _8795_/Q _7715_/X _7729_/Y _7730_/X vssd1 vssd1 vccd1 vccd1 _8795_/D sky130_fd_sc_hd__o22a_1
X_4943_ _8312_/Q vssd1 vssd1 vccd1 vccd1 _5104_/B sky130_fd_sc_hd__dlymetal6s2s_1
XFILLER_52_537 vssd1 vssd1 vccd1 vccd1 sky130_fd_sc_hd__decap_4
X_7662_ _7662_/A vssd1 vssd1 vccd1 vccd1 _8629_/D sky130_fd_sc_hd__clkbuf_1
XANTENNA__6205__A _6205_/A vssd1 vssd1 vccd1 vccd1 sky130_fd_sc_hd__diode_2
X_6613_ _6620_/B _6613_/B _6613_/C vssd1 vssd1 vccd1 vccd1 _6624_/A sky130_fd_sc_hd__and3_1
XFILLER_32_272 vssd1 vssd1 vccd1 vccd1 sky130_fd_sc_hd__decap_4
X_4874_ _8699_/Q _8687_/Q vssd1 vssd1 vccd1 vccd1 _6315_/B sky130_fd_sc_hd__nand2_1
X_7593_ _7593_/A vssd1 vssd1 vccd1 vccd1 _8050_/D sky130_fd_sc_hd__clkbuf_1
X_6544_ _6544_/A _6544_/B vssd1 vssd1 vccd1 vccd1 _6546_/A sky130_fd_sc_hd__nor2_1
Xclkbuf_4_12_0_clk clkbuf_3_6_0_clk/X vssd1 vssd1 vccd1 vccd1 _8834_/CLK sky130_fd_sc_hd__clkbuf_2
X_6475_ _6474_/X _8669_/Q _6475_/C vssd1 vssd1 vccd1 vccd1 _6481_/B sky130_fd_sc_hd__nand3b_1
X_8214_ _8259_/CLK _8214_/D vssd1 vssd1 vccd1 vccd1 _8214_/Q sky130_fd_sc_hd__dfxtp_1
XANTENNA__7036__A _7036_/A vssd1 vssd1 vccd1 vccd1 sky130_fd_sc_hd__diode_2
X_5426_ _5426_/A _7012_/D _5426_/C vssd1 vssd1 vccd1 vccd1 _6979_/A sky130_fd_sc_hd__and3_1
XFILLER_102_701 vssd1 vssd1 vccd1 vccd1 sky130_fd_sc_hd__decap_12
XFILLER_99_272 vssd1 vssd1 vccd1 vccd1 sky130_fd_sc_hd__decap_8
X_8145_ _8273_/CLK _8145_/D vssd1 vssd1 vccd1 vccd1 _8145_/Q sky130_fd_sc_hd__dfxtp_1
X_5357_ _5368_/B _5355_/X _5356_/X vssd1 vssd1 vccd1 vccd1 _5365_/A sky130_fd_sc_hd__a21bo_1
XFILLER_59_125 vssd1 vssd1 vccd1 vccd1 sky130_fd_sc_hd__fill_1
X_8076_ _8277_/CLK _8076_/D vssd1 vssd1 vccd1 vccd1 _8076_/Q sky130_fd_sc_hd__dfxtp_1
X_5288_ _5288_/A _5288_/B vssd1 vssd1 vccd1 vccd1 _5298_/B sky130_fd_sc_hd__nand2_1
X_4308_ _5418_/A _8777_/Q _4307_/C vssd1 vssd1 vccd1 vccd1 _4308_/Y sky130_fd_sc_hd__a21oi_1