*SPEF "ieee 1481-1999"
*DESIGN "coefio"
*DATE "11:11:11 Fri 11 11, 1111"
*VENDOR "OpenRCX"
*PROGRAM "Parallel Extraction"
*VERSION "1.0"
*DESIGN_FLOW "NAME_SCOPE LOCAL" "PIN_CAP NONE"
*DIVIDER /
*DELIMITER :
*BUS_DELIMITER []
*T_UNIT 1 NS
*C_UNIT 1 PF
*R_UNIT 1 OHM
*L_UNIT 1 HENRY

*NAME_MAP
*1 a11[0]
*2 a11[10]
*3 a11[11]
*4 a11[12]
*5 a11[13]
*6 a11[14]
*7 a11[15]
*8 a11[16]
*9 a11[17]
*10 a11[18]
*11 a11[19]
*12 a11[1]
*13 a11[20]
*14 a11[21]
*15 a11[22]
*16 a11[23]
*17 a11[24]
*18 a11[25]
*19 a11[26]
*20 a11[27]
*21 a11[28]
*22 a11[29]
*23 a11[2]
*24 a11[30]
*25 a11[31]
*26 a11[3]
*27 a11[4]
*28 a11[5]
*29 a11[6]
*30 a11[7]
*31 a11[8]
*32 a11[9]
*33 a12[0]
*34 a12[10]
*35 a12[11]
*36 a12[12]
*37 a12[13]
*38 a12[14]
*39 a12[15]
*40 a12[16]
*41 a12[17]
*42 a12[18]
*43 a12[19]
*44 a12[1]
*45 a12[20]
*46 a12[21]
*47 a12[22]
*48 a12[23]
*49 a12[24]
*50 a12[25]
*51 a12[26]
*52 a12[27]
*53 a12[28]
*54 a12[29]
*55 a12[2]
*56 a12[30]
*57 a12[31]
*58 a12[3]
*59 a12[4]
*60 a12[5]
*61 a12[6]
*62 a12[7]
*63 a12[8]
*64 a12[9]
*65 ack_o
*66 adr_i[0]
*67 adr_i[1]
*68 adr_i[2]
*69 adr_i[3]
*70 b10[0]
*71 b10[10]
*72 b10[11]
*73 b10[12]
*74 b10[13]
*75 b10[14]
*76 b10[15]
*77 b10[16]
*78 b10[17]
*79 b10[18]
*80 b10[19]
*81 b10[1]
*82 b10[20]
*83 b10[21]
*84 b10[22]
*85 b10[23]
*86 b10[24]
*87 b10[25]
*88 b10[26]
*89 b10[27]
*90 b10[28]
*91 b10[29]
*92 b10[2]
*93 b10[30]
*94 b10[31]
*95 b10[3]
*96 b10[4]
*97 b10[5]
*98 b10[6]
*99 b10[7]
*100 b10[8]
*101 b10[9]
*102 b11[0]
*103 b11[10]
*104 b11[11]
*105 b11[12]
*106 b11[13]
*107 b11[14]
*108 b11[15]
*109 b11[16]
*110 b11[17]
*111 b11[18]
*112 b11[19]
*113 b11[1]
*114 b11[20]
*115 b11[21]
*116 b11[22]
*117 b11[23]
*118 b11[24]
*119 b11[25]
*120 b11[26]
*121 b11[27]
*122 b11[28]
*123 b11[29]
*124 b11[2]
*125 b11[30]
*126 b11[31]
*127 b11[3]
*128 b11[4]
*129 b11[5]
*130 b11[6]
*131 b11[7]
*132 b11[8]
*133 b11[9]
*134 b12[0]
*135 b12[10]
*136 b12[11]
*137 b12[12]
*138 b12[13]
*139 b12[14]
*140 b12[15]
*141 b12[16]
*142 b12[17]
*143 b12[18]
*144 b12[19]
*145 b12[1]
*146 b12[20]
*147 b12[21]
*148 b12[22]
*149 b12[23]
*150 b12[24]
*151 b12[25]
*152 b12[26]
*153 b12[27]
*154 b12[28]
*155 b12[29]
*156 b12[2]
*157 b12[30]
*158 b12[31]
*159 b12[3]
*160 b12[4]
*161 b12[5]
*162 b12[6]
*163 b12[7]
*164 b12[8]
*165 b12[9]
*166 clk_i
*167 cyc_i
*168 dat_i[0]
*169 dat_i[10]
*170 dat_i[11]
*171 dat_i[12]
*172 dat_i[13]
*173 dat_i[14]
*174 dat_i[15]
*175 dat_i[16]
*176 dat_i[17]
*177 dat_i[18]
*178 dat_i[19]
*179 dat_i[1]
*180 dat_i[20]
*181 dat_i[21]
*182 dat_i[22]
*183 dat_i[23]
*184 dat_i[24]
*185 dat_i[25]
*186 dat_i[26]
*187 dat_i[27]
*188 dat_i[28]
*189 dat_i[29]
*190 dat_i[2]
*191 dat_i[30]
*192 dat_i[31]
*193 dat_i[3]
*194 dat_i[4]
*195 dat_i[5]
*196 dat_i[6]
*197 dat_i[7]
*198 dat_i[8]
*199 dat_i[9]
*200 dat_o[0]
*201 dat_o[10]
*202 dat_o[11]
*203 dat_o[12]
*204 dat_o[13]
*205 dat_o[14]
*206 dat_o[15]
*207 dat_o[16]
*208 dat_o[17]
*209 dat_o[18]
*210 dat_o[19]
*211 dat_o[1]
*212 dat_o[20]
*213 dat_o[21]
*214 dat_o[22]
*215 dat_o[23]
*216 dat_o[24]
*217 dat_o[25]
*218 dat_o[26]
*219 dat_o[27]
*220 dat_o[28]
*221 dat_o[29]
*222 dat_o[2]
*223 dat_o[30]
*224 dat_o[31]
*225 dat_o[3]
*226 dat_o[4]
*227 dat_o[5]
*228 dat_o[6]
*229 dat_o[7]
*230 dat_o[8]
*231 dat_o[9]
*232 rst_i
*233 stb_i
*236 we_i
*237 x[0]
*238 x[10]
*239 x[11]
*240 x[12]
*241 x[13]
*242 x[14]
*243 x[15]
*244 x[1]
*245 x[2]
*246 x[3]
*247 x[4]
*248 x[5]
*249 x[6]
*250 x[7]
*251 x[8]
*252 x[9]
*253 y[0]
*254 y[10]
*255 y[11]
*256 y[12]
*257 y[13]
*258 y[14]
*259 y[15]
*260 y[1]
*261 y[2]
*262 y[3]
*263 y[4]
*264 y[5]
*265 y[6]
*266 y[7]
*267 y[8]
*268 y[9]
*269 _0000_
*270 _0001_
*271 _0002_
*272 _0003_
*273 _0004_
*274 _0005_
*275 _0006_
*276 _0007_
*277 _0008_
*278 _0009_
*279 _0010_
*280 _0011_
*281 _0012_
*282 _0013_
*283 _0014_
*284 _0015_
*285 _0016_
*286 _0017_
*287 _0018_
*288 _0019_
*289 _0020_
*290 _0021_
*291 _0022_
*292 _0023_
*293 _0024_
*294 _0025_
*295 _0026_
*296 _0027_
*297 _0028_
*298 _0029_
*299 _0030_
*300 _0031_
*301 _0032_
*302 _0033_
*303 _0034_
*304 _0035_
*305 _0036_
*306 _0037_
*307 _0038_
*308 _0039_
*309 _0040_
*310 _0041_
*311 _0042_
*312 _0043_
*313 _0044_
*314 _0045_
*315 _0046_
*316 _0047_
*317 _0048_
*318 _0049_
*319 _0050_
*320 _0051_
*321 _0052_
*322 _0053_
*323 _0054_
*324 _0055_
*325 _0056_
*326 _0057_
*327 _0058_
*328 _0059_
*329 _0060_
*330 _0061_
*331 _0062_
*332 _0063_
*333 _0064_
*334 _0065_
*335 _0066_
*336 _0067_
*337 _0068_
*338 _0069_
*339 _0070_
*340 _0071_
*341 _0072_
*342 _0073_
*343 _0074_
*344 _0075_
*345 _0076_
*346 _0077_
*347 _0078_
*348 _0079_
*349 _0080_
*350 _0081_
*351 _0082_
*352 _0083_
*353 _0084_
*354 _0085_
*355 _0086_
*356 _0087_
*357 _0088_
*358 _0089_
*359 _0090_
*360 _0091_
*361 _0092_
*362 _0093_
*363 _0094_
*364 _0095_
*365 _0096_
*366 _0097_
*367 _0098_
*368 _0099_
*369 _0100_
*370 _0101_
*371 _0102_
*372 _0103_
*373 _0104_
*374 _0105_
*375 _0106_
*376 _0107_
*377 _0108_
*378 _0109_
*379 _0110_
*380 _0111_
*381 _0112_
*382 _0113_
*383 _0114_
*384 _0115_
*385 _0116_
*386 _0117_
*387 _0118_
*388 _0119_
*389 _0120_
*390 _0121_
*391 _0122_
*392 _0123_
*393 _0124_
*394 _0125_
*395 _0126_
*396 _0127_
*397 _0128_
*398 _0129_
*399 _0130_
*400 _0131_
*401 _0132_
*402 _0133_
*403 _0134_
*404 _0135_
*405 _0136_
*406 _0137_
*407 _0138_
*408 _0139_
*409 _0140_
*410 _0141_
*411 _0142_
*412 _0143_
*413 _0144_
*414 _0145_
*415 _0146_
*416 _0147_
*417 _0148_
*418 _0149_
*419 _0150_
*420 _0151_
*421 _0152_
*422 _0153_
*423 _0154_
*424 _0155_
*425 _0156_
*426 _0157_
*427 _0158_
*428 _0159_
*429 _0160_
*430 _0161_
*431 _0162_
*432 _0163_
*433 _0164_
*434 _0165_
*435 _0166_
*436 _0167_
*437 _0168_
*438 _0169_
*439 _0170_
*440 _0171_
*441 _0172_
*442 _0173_
*443 _0174_
*444 _0175_
*445 _0176_
*446 _0177_
*447 _0178_
*448 _0179_
*449 _0180_
*450 _0181_
*451 _0182_
*452 _0183_
*453 _0184_
*454 _0185_
*455 _0186_
*456 _0187_
*457 _0188_
*458 _0189_
*459 _0190_
*460 _0191_
*461 _0192_
*462 _0193_
*463 _0194_
*464 _0195_
*465 _0196_
*466 _0197_
*467 _0198_
*468 _0199_
*469 _0200_
*470 _0201_
*471 _0202_
*472 _0203_
*473 _0204_
*474 _0205_
*475 _0206_
*476 _0207_
*477 _0208_
*478 _0209_
*479 _0210_
*480 _0211_
*481 _0212_
*482 _0213_
*483 _0214_
*484 _0215_
*485 _0216_
*486 _0217_
*487 _0218_
*488 _0219_
*489 _0220_
*490 _0221_
*491 _0222_
*492 _0223_
*493 _0224_
*494 _0225_
*495 _0226_
*496 _0227_
*497 _0228_
*498 _0229_
*499 _0230_
*500 _0231_
*501 _0232_
*502 _0233_
*503 _0234_
*504 _0235_
*505 _0236_
*506 _0237_
*507 _0238_
*508 _0239_
*509 _0240_
*510 _0241_
*511 _0242_
*512 _0243_
*513 _0244_
*514 _0245_
*515 _0246_
*516 _0247_
*517 _0248_
*518 _0249_
*519 _0250_
*520 _0251_
*521 _0252_
*522 _0253_
*523 _0254_
*524 _0255_
*525 _0256_
*526 _0257_
*527 _0258_
*528 _0259_
*529 _0260_
*530 _0261_
*531 _0262_
*532 _0263_
*533 _0264_
*534 _0265_
*535 _0266_
*536 _0267_
*537 _0268_
*538 _0269_
*539 _0270_
*540 _0271_
*541 _0272_
*542 _0273_
*543 _0274_
*544 _0275_
*545 _0276_
*546 _0277_
*547 _0278_
*548 _0279_
*549 _0280_
*550 _0281_
*551 _0282_
*552 _0283_
*553 _0284_
*554 _0285_
*555 _0286_
*556 _0287_
*557 _0288_
*558 _0289_
*559 _0290_
*560 _0291_
*561 _0292_
*562 _0293_
*563 _0294_
*564 _0295_
*565 _0296_
*566 _0297_
*567 _0298_
*568 _0299_
*569 _0300_
*570 _0301_
*571 _0302_
*572 _0303_
*573 _0304_
*574 _0305_
*575 _0306_
*576 _0307_
*577 _0308_
*578 _0309_
*579 _0310_
*580 _0311_
*581 _0312_
*582 _0313_
*583 _0314_
*584 _0315_
*585 _0316_
*586 _0317_
*587 _0318_
*588 _0319_
*589 _0320_
*590 _0321_
*591 _0322_
*592 _0323_
*593 _0324_
*594 _0325_
*595 _0326_
*596 _0327_
*597 _0328_
*598 _0329_
*599 _0330_
*600 _0331_
*601 _0332_
*602 _0333_
*603 _0334_
*604 _0335_
*605 _0336_
*606 _0337_
*607 _0338_
*608 _0339_
*609 _0340_
*610 _0341_
*611 _0342_
*612 _0343_
*613 _0344_
*614 _0345_
*615 _0346_
*616 _0347_
*617 _0348_
*618 _0349_
*619 _0350_
*620 _0351_
*621 _0352_
*622 _0353_
*623 _0354_
*624 _0355_
*625 _0356_
*626 _0357_
*627 _0358_
*628 _0359_
*629 _0360_
*630 _0361_
*631 _0362_
*632 _0363_
*633 _0364_
*634 _0365_
*635 _0366_
*636 _0367_
*637 _0368_
*638 _0369_
*639 _0370_
*640 _0371_
*641 _0372_
*642 _0373_
*643 _0374_
*644 _0375_
*645 _0376_
*646 _0377_
*647 _0378_
*648 _0379_
*649 _0380_
*650 _0381_
*651 _0382_
*652 _0383_
*653 _0384_
*654 _0385_
*655 _0386_
*656 _0387_
*657 _0388_
*658 _0389_
*659 _0390_
*660 _0391_
*661 _0392_
*662 _0393_
*663 _0394_
*664 _0395_
*665 _0396_
*666 _0397_
*667 _0398_
*668 _0399_
*669 _0400_
*670 _0401_
*671 _0402_
*672 _0403_
*673 _0404_
*674 _0405_
*675 _0406_
*676 _0407_
*677 _0408_
*678 _0409_
*679 _0410_
*680 _0411_
*681 _0412_
*682 _0413_
*683 _0414_
*684 _0415_
*685 _0416_
*686 _0417_
*687 _0418_
*688 _0419_
*689 _0420_
*690 _0421_
*691 _0422_
*692 _0423_
*693 _0424_
*694 _0425_
*695 _0426_
*696 _0427_
*697 _0428_
*698 _0429_
*699 _0430_
*700 _0431_
*701 _0432_
*702 _0433_
*703 _0434_
*704 _0435_
*705 _0436_
*706 _0437_
*707 _0438_
*708 _0439_
*709 _0440_
*710 _0441_
*711 _0442_
*712 _0443_
*713 _0444_
*714 _0445_
*715 _0446_
*716 _0447_
*717 _0448_
*718 _0449_
*719 _0450_
*720 _0451_
*721 _0452_
*722 _0453_
*723 _0454_
*724 _0455_
*725 _0456_
*726 _0457_
*727 _0458_
*728 _0459_
*729 _0460_
*730 _0461_
*731 _0462_
*732 _0463_
*733 _0464_
*734 _0465_
*735 _0466_
*736 _0467_
*737 _0468_
*738 _0469_
*739 _0470_
*740 _0471_
*741 _0472_
*742 _0473_
*743 _0474_
*744 _0475_
*745 _0476_
*746 _0477_
*747 _0478_
*748 _0479_
*749 _0480_
*750 _0481_
*751 _0482_
*752 _0483_
*753 _0484_
*754 _0485_
*755 _0486_
*756 _0487_
*757 _0488_
*758 _0489_
*759 _0490_
*760 _0491_
*761 _0492_
*762 _0493_
*763 _0494_
*764 _0495_
*765 _0496_
*766 _0497_
*767 _0498_
*768 _0499_
*769 _0500_
*770 _0501_
*771 _0502_
*772 _0503_
*773 _0504_
*774 _0505_
*775 _0506_
*776 _0507_
*777 _0508_
*778 _0509_
*779 _0510_
*780 _0511_
*781 _0512_
*782 _0513_
*783 _0514_
*784 _0515_
*785 _0516_
*786 _0517_
*787 _0518_
*788 _0519_
*789 _0520_
*790 _0521_
*791 _0522_
*792 _0523_
*793 _0524_
*794 _0525_
*795 _0526_
*796 _0527_
*797 _0528_
*798 _0529_
*799 _0530_
*800 _0531_
*801 _0532_
*802 _0533_
*803 _0534_
*804 _0535_
*805 _0536_
*806 _0537_
*807 _0538_
*808 _0539_
*809 _0540_
*810 _0541_
*811 _0542_
*812 _0543_
*813 _0544_
*814 _0545_
*815 _0546_
*816 _0547_
*817 _0548_
*818 _0549_
*819 _0550_
*820 _0551_
*821 _0552_
*822 _0553_
*823 _0554_
*824 _0555_
*825 _0556_
*826 _0557_
*827 _0558_
*828 _0559_
*829 _0560_
*830 _0561_
*831 _0562_
*832 _0563_
*833 _0564_
*834 _0565_
*835 _0566_
*836 _0567_
*837 _0568_
*838 _0569_
*839 _0570_
*840 _0571_
*841 _0572_
*842 _0573_
*843 _0574_
*844 _0575_
*845 _0576_
*846 _0577_
*847 _0578_
*848 _0579_
*849 _0580_
*850 _0581_
*851 _0582_
*852 _0583_
*853 _0584_
*854 _0585_
*855 _0586_
*856 _0587_
*857 _0588_
*858 _0589_
*859 _0590_
*860 _0591_
*861 _0592_
*862 _0593_
*863 _0594_
*864 _0595_
*865 _0596_
*866 _0597_
*867 _0598_
*868 _0599_
*869 _0600_
*870 _0601_
*871 _0602_
*872 _0603_
*873 _0604_
*874 _0605_
*875 _0606_
*876 _0607_
*877 _0608_
*878 _0609_
*879 _0610_
*880 _0611_
*881 _0612_
*882 _0613_
*883 _0614_
*884 _0615_
*885 _0616_
*886 _0617_
*887 _0618_
*888 _0619_
*889 _0620_
*890 _0621_
*891 _0622_
*892 _0623_
*893 _0624_
*894 _0625_
*895 _0626_
*896 _0627_
*897 _0628_
*898 _0629_
*899 _0630_
*900 _0631_
*901 _0632_
*902 _0633_
*903 _0634_
*904 _0635_
*905 _0636_
*906 _0637_
*907 _0638_
*908 _0639_
*909 _0640_
*910 _0641_
*911 _0642_
*912 _0643_
*913 _0644_
*914 _0645_
*915 _0646_
*916 _0647_
*917 _0648_
*918 _0649_
*919 _0650_
*920 _0651_
*921 _0652_
*922 _0653_
*923 _0654_
*924 _0655_
*925 _0656_
*926 _0657_
*927 _0658_
*928 _0659_
*929 _0660_
*930 _0661_
*931 _0662_
*932 _0663_
*933 _0664_
*934 _0665_
*935 _0666_
*936 _0667_
*937 _0668_
*938 _0669_
*939 _0670_
*940 _0671_
*941 _0672_
*942 _0673_
*943 _0674_
*944 _0675_
*945 _0676_
*946 _0677_
*947 _0678_
*948 _0679_
*949 _0680_
*950 _0681_
*951 _0682_
*952 _0683_
*953 _0684_
*954 _0685_
*955 _0686_
*956 _0687_
*957 _0688_
*958 _0689_
*959 _0690_
*960 _0691_
*961 _0692_
*962 _0693_
*963 _0694_
*964 _0695_
*965 _0696_
*966 _0697_
*967 _0698_
*968 _0699_
*969 _0700_
*970 _0701_
*971 _0702_
*972 _0703_
*973 _0704_
*974 _0705_
*975 _0706_
*976 _0707_
*977 _0708_
*978 _0709_
*979 _0710_
*980 _0711_
*981 _0712_
*982 _0713_
*983 _0714_
*984 _0715_
*985 _0716_
*986 _0717_
*987 _0718_
*988 _0719_
*989 _0720_
*990 _0721_
*991 _0722_
*992 clknet_0_clk_i
*993 clknet_2_0_0_clk_i
*994 clknet_2_1_0_clk_i
*995 clknet_2_2_0_clk_i
*996 clknet_2_3_0_clk_i
*997 clknet_3_0_0_clk_i
*998 clknet_3_1_0_clk_i
*999 clknet_3_2_0_clk_i
*1000 clknet_3_3_0_clk_i
*1001 clknet_3_4_0_clk_i
*1002 clknet_3_5_0_clk_i
*1003 clknet_3_6_0_clk_i
*1004 clknet_3_7_0_clk_i
*1005 clknet_4_0_0_clk_i
*1006 clknet_4_10_0_clk_i
*1007 clknet_4_11_0_clk_i
*1008 clknet_4_12_0_clk_i
*1009 clknet_4_13_0_clk_i
*1010 clknet_4_14_0_clk_i
*1011 clknet_4_15_0_clk_i
*1012 clknet_4_1_0_clk_i
*1013 clknet_4_2_0_clk_i
*1014 clknet_4_3_0_clk_i
*1015 clknet_4_4_0_clk_i
*1016 clknet_4_5_0_clk_i
*1017 clknet_4_6_0_clk_i
*1018 clknet_4_7_0_clk_i
*1019 clknet_4_8_0_clk_i
*1020 clknet_4_9_0_clk_i
*1021 net1
*1022 net10
*1023 net100
*1024 net101
*1025 net102
*1026 net103
*1027 net104
*1028 net105
*1029 net106
*1030 net107
*1031 net108
*1032 net109
*1033 net11
*1034 net110
*1035 net111
*1036 net112
*1037 net113
*1038 net114
*1039 net115
*1040 net116
*1041 net117
*1042 net118
*1043 net119
*1044 net12
*1045 net120
*1046 net121
*1047 net122
*1048 net123
*1049 net124
*1050 net125
*1051 net126
*1052 net127
*1053 net128
*1054 net129
*1055 net13
*1056 net130
*1057 net131
*1058 net132
*1059 net133
*1060 net134
*1061 net135
*1062 net136
*1063 net137
*1064 net138
*1065 net139
*1066 net14
*1067 net140
*1068 net141
*1069 net142
*1070 net143
*1071 net144
*1072 net145
*1073 net146
*1074 net147
*1075 net148
*1076 net149
*1077 net15
*1078 net150
*1079 net151
*1080 net152
*1081 net153
*1082 net154
*1083 net155
*1084 net156
*1085 net157
*1086 net158
*1087 net159
*1088 net16
*1089 net160
*1090 net161
*1091 net162
*1092 net163
*1093 net164
*1094 net165
*1095 net166
*1096 net167
*1097 net168
*1098 net169
*1099 net17
*1100 net170
*1101 net171
*1102 net172
*1103 net173
*1104 net174
*1105 net175
*1106 net176
*1107 net177
*1108 net178
*1109 net179
*1110 net18
*1111 net180
*1112 net181
*1113 net182
*1114 net183
*1115 net184
*1116 net185
*1117 net186
*1118 net187
*1119 net188
*1120 net189
*1121 net19
*1122 net190
*1123 net191
*1124 net192
*1125 net193
*1126 net194
*1127 net195
*1128 net196
*1129 net197
*1130 net198
*1131 net199
*1132 net2
*1133 net20
*1134 net200
*1135 net201
*1136 net202
*1137 net203
*1138 net204
*1139 net205
*1140 net206
*1141 net207
*1142 net208
*1143 net209
*1144 net21
*1145 net210
*1146 net211
*1147 net212
*1148 net213
*1149 net214
*1150 net215
*1151 net216
*1152 net217
*1153 net218
*1154 net219
*1155 net22
*1156 net220
*1157 net221
*1158 net222
*1159 net223
*1160 net224
*1161 net225
*1162 net226
*1163 net227
*1164 net228
*1165 net229
*1166 net23
*1167 net230
*1168 net231
*1169 net232
*1170 net233
*1171 net234
*1172 net235
*1173 net236
*1174 net237
*1175 net238
*1176 net239
*1177 net24
*1178 net240
*1179 net241
*1180 net242
*1181 net243
*1182 net244
*1183 net245
*1184 net246
*1185 net247
*1186 net248
*1187 net249
*1188 net25
*1189 net250
*1190 net251
*1191 net252
*1192 net253
*1193 net254
*1194 net255
*1195 net256
*1196 net257
*1197 net258
*1198 net259
*1199 net26
*1200 net260
*1201 net261
*1202 net262
*1203 net263
*1204 net264
*1205 net265
*1206 net27
*1207 net28
*1208 net29
*1209 net3
*1210 net30
*1211 net31
*1212 net32
*1213 net33
*1214 net34
*1215 net35
*1216 net36
*1217 net37
*1218 net38
*1219 net39
*1220 net4
*1221 net40
*1222 net41
*1223 net42
*1224 net43
*1225 net44
*1226 net45
*1227 net46
*1228 net47
*1229 net48
*1230 net49
*1231 net5
*1232 net50
*1233 net51
*1234 net52
*1235 net53
*1236 net54
*1237 net55
*1238 net56
*1239 net57
*1240 net58
*1241 net59
*1242 net6
*1243 net60
*1244 net61
*1245 net62
*1246 net63
*1247 net64
*1248 net65
*1249 net66
*1250 net67
*1251 net68
*1252 net69
*1253 net7
*1254 net70
*1255 net71
*1256 net72
*1257 net73
*1258 net74
*1259 net75
*1260 net76
*1261 net77
*1262 net78
*1263 net79
*1264 net8
*1265 net80
*1266 net81
*1267 net82
*1268 net83
*1269 net84
*1270 net85
*1271 net86
*1272 net87
*1273 net88
*1274 net89
*1275 net9
*1276 net90
*1277 net91
*1278 net92
*1279 net93
*1280 net94
*1281 net95
*1282 net96
*1283 net97
*1284 net98
*1285 net99
*1286 ANTENNA__0723__A_N
*1287 ANTENNA__0723__B_N
*1288 ANTENNA__0723__C
*1289 ANTENNA__0723__D
*1290 ANTENNA__0724__A
*1291 ANTENNA__0724__B
*1292 ANTENNA__0724__C
*1293 ANTENNA__0725__A
*1294 ANTENNA__0726__A
*1295 ANTENNA__0726__B
*1296 ANTENNA__0728__A
*1297 ANTENNA__0729__A0
*1298 ANTENNA__0729__A1
*1299 ANTENNA__0729__S
*1300 ANTENNA__0731__A0
*1301 ANTENNA__0731__A1
*1302 ANTENNA__0731__S
*1303 ANTENNA__0733__A0
*1304 ANTENNA__0733__A1
*1305 ANTENNA__0733__S
*1306 ANTENNA__0735__A0
*1307 ANTENNA__0735__A1
*1308 ANTENNA__0735__S
*1309 ANTENNA__0737__A0
*1310 ANTENNA__0737__A1
*1311 ANTENNA__0737__S
*1312 ANTENNA__0739__A
*1313 ANTENNA__0740__A0
*1314 ANTENNA__0740__A1
*1315 ANTENNA__0740__S
*1316 ANTENNA__0742__A0
*1317 ANTENNA__0742__A1
*1318 ANTENNA__0742__S
*1319 ANTENNA__0744__A0
*1320 ANTENNA__0744__A1
*1321 ANTENNA__0744__S
*1322 ANTENNA__0746__A0
*1323 ANTENNA__0746__A1
*1324 ANTENNA__0746__S
*1325 ANTENNA__0748__A0
*1326 ANTENNA__0748__A1
*1327 ANTENNA__0748__S
*1328 ANTENNA__0750__A
*1329 ANTENNA__0751__A0
*1330 ANTENNA__0751__A1
*1331 ANTENNA__0751__S
*1332 ANTENNA__0753__A0
*1333 ANTENNA__0753__A1
*1334 ANTENNA__0753__S
*1335 ANTENNA__0755__A0
*1336 ANTENNA__0755__A1
*1337 ANTENNA__0755__S
*1338 ANTENNA__0757__A0
*1339 ANTENNA__0757__A1
*1340 ANTENNA__0757__S
*1341 ANTENNA__0759__A0
*1342 ANTENNA__0759__A1
*1343 ANTENNA__0759__S
*1344 ANTENNA__0762__A0
*1345 ANTENNA__0762__A1
*1346 ANTENNA__0762__S
*1347 ANTENNA__0764__A0
*1348 ANTENNA__0764__A1
*1349 ANTENNA__0764__S
*1350 ANTENNA__0766__A0
*1351 ANTENNA__0766__A1
*1352 ANTENNA__0766__S
*1353 ANTENNA__0768__A0
*1354 ANTENNA__0768__A1
*1355 ANTENNA__0768__S
*1356 ANTENNA__0770__A0
*1357 ANTENNA__0770__A1
*1358 ANTENNA__0770__S
*1359 ANTENNA__0773__A0
*1360 ANTENNA__0773__A1
*1361 ANTENNA__0775__A0
*1362 ANTENNA__0775__A1
*1363 ANTENNA__0777__A0
*1364 ANTENNA__0777__A1
*1365 ANTENNA__0779__A0
*1366 ANTENNA__0779__A1
*1367 ANTENNA__0781__A0
*1368 ANTENNA__0781__A1
*1369 ANTENNA__0784__A0
*1370 ANTENNA__0784__A1
*1371 ANTENNA__0784__S
*1372 ANTENNA__0786__A0
*1373 ANTENNA__0786__A1
*1374 ANTENNA__0786__S
*1375 ANTENNA__0788__A0
*1376 ANTENNA__0788__A1
*1377 ANTENNA__0788__S
*1378 ANTENNA__0790__A0
*1379 ANTENNA__0790__A1
*1380 ANTENNA__0790__S
*1381 ANTENNA__0792__A0
*1382 ANTENNA__0792__A1
*1383 ANTENNA__0792__S
*1384 ANTENNA__0794__A0
*1385 ANTENNA__0794__A1
*1386 ANTENNA__0794__S
*1387 ANTENNA__0796__A0
*1388 ANTENNA__0796__A1
*1389 ANTENNA__0796__S
*1390 ANTENNA__0798__A
*1391 ANTENNA__0799__A
*1392 ANTENNA__0800__A
*1393 ANTENNA__0801__A
*1394 ANTENNA__0802__B
*1395 ANTENNA__0803__A
*1396 ANTENNA__0803__B
*1397 ANTENNA__0805__A
*1398 ANTENNA__0806__A0
*1399 ANTENNA__0806__A1
*1400 ANTENNA__0806__S
*1401 ANTENNA__0808__A0
*1402 ANTENNA__0808__A1
*1403 ANTENNA__0808__S
*1404 ANTENNA__0810__A0
*1405 ANTENNA__0810__A1
*1406 ANTENNA__0810__S
*1407 ANTENNA__0812__A0
*1408 ANTENNA__0812__A1
*1409 ANTENNA__0812__S
*1410 ANTENNA__0814__A0
*1411 ANTENNA__0814__A1
*1412 ANTENNA__0814__S
*1413 ANTENNA__0816__A
*1414 ANTENNA__0817__A0
*1415 ANTENNA__0817__A1
*1416 ANTENNA__0819__A0
*1417 ANTENNA__0819__A1
*1418 ANTENNA__0821__A0
*1419 ANTENNA__0821__A1
*1420 ANTENNA__0823__A0
*1421 ANTENNA__0823__A1
*1422 ANTENNA__0825__A0
*1423 ANTENNA__0825__A1
*1424 ANTENNA__0827__A
*1425 ANTENNA__0828__A0
*1426 ANTENNA__0828__A1
*1427 ANTENNA__0828__S
*1428 ANTENNA__0830__A0
*1429 ANTENNA__0830__A1
*1430 ANTENNA__0830__S
*1431 ANTENNA__0832__A0
*1432 ANTENNA__0832__A1
*1433 ANTENNA__0832__S
*1434 ANTENNA__0834__A0
*1435 ANTENNA__0834__A1
*1436 ANTENNA__0834__S
*1437 ANTENNA__0836__A0
*1438 ANTENNA__0836__A1
*1439 ANTENNA__0836__S
*1440 ANTENNA__0839__A0
*1441 ANTENNA__0839__A1
*1442 ANTENNA__0839__S
*1443 ANTENNA__0841__A0
*1444 ANTENNA__0841__A1
*1445 ANTENNA__0841__S
*1446 ANTENNA__0843__A0
*1447 ANTENNA__0843__A1
*1448 ANTENNA__0843__S
*1449 ANTENNA__0845__A0
*1450 ANTENNA__0845__A1
*1451 ANTENNA__0845__S
*1452 ANTENNA__0847__A0
*1453 ANTENNA__0847__A1
*1454 ANTENNA__0847__S
*1455 ANTENNA__0850__A0
*1456 ANTENNA__0850__A1
*1457 ANTENNA__0850__S
*1458 ANTENNA__0852__A0
*1459 ANTENNA__0852__A1
*1460 ANTENNA__0852__S
*1461 ANTENNA__0854__A0
*1462 ANTENNA__0854__A1
*1463 ANTENNA__0854__S
*1464 ANTENNA__0856__A0
*1465 ANTENNA__0856__A1
*1466 ANTENNA__0856__S
*1467 ANTENNA__0858__A0
*1468 ANTENNA__0858__A1
*1469 ANTENNA__0858__S
*1470 ANTENNA__0861__A0
*1471 ANTENNA__0861__A1
*1472 ANTENNA__0861__S
*1473 ANTENNA__0863__A0
*1474 ANTENNA__0863__A1
*1475 ANTENNA__0863__S
*1476 ANTENNA__0865__A0
*1477 ANTENNA__0865__A1
*1478 ANTENNA__0865__S
*1479 ANTENNA__0867__A0
*1480 ANTENNA__0867__A1
*1481 ANTENNA__0867__S
*1482 ANTENNA__0868__A
*1483 ANTENNA__0869__A0
*1484 ANTENNA__0869__A1
*1485 ANTENNA__0869__S
*1486 ANTENNA__0871__A0
*1487 ANTENNA__0871__A1
*1488 ANTENNA__0871__S
*1489 ANTENNA__0873__A0
*1490 ANTENNA__0873__A1
*1491 ANTENNA__0873__S
*1492 ANTENNA__0875__B
*1493 ANTENNA__0876__A
*1494 ANTENNA__0876__B
*1495 ANTENNA__0877__A
*1496 ANTENNA__0878__A
*1497 ANTENNA__0879__A0
*1498 ANTENNA__0879__A1
*1499 ANTENNA__0879__S
*1500 ANTENNA__0881__A0
*1501 ANTENNA__0881__A1
*1502 ANTENNA__0881__S
*1503 ANTENNA__0883__A0
*1504 ANTENNA__0883__A1
*1505 ANTENNA__0883__S
*1506 ANTENNA__0884__A
*1507 ANTENNA__0885__A0
*1508 ANTENNA__0885__A1
*1509 ANTENNA__0885__S
*1510 ANTENNA__0887__A0
*1511 ANTENNA__0887__A1
*1512 ANTENNA__0887__S
*1513 ANTENNA__0889__A
*1514 ANTENNA__0890__A0
*1515 ANTENNA__0890__A1
*1516 ANTENNA__0890__S
*1517 ANTENNA__0892__A0
*1518 ANTENNA__0892__A1
*1519 ANTENNA__0892__S
*1520 ANTENNA__0894__A0
*1521 ANTENNA__0894__A1
*1522 ANTENNA__0894__S
*1523 ANTENNA__0896__A0
*1524 ANTENNA__0896__A1
*1525 ANTENNA__0896__S
*1526 ANTENNA__0898__A0
*1527 ANTENNA__0898__A1
*1528 ANTENNA__0898__S
*1529 ANTENNA__0900__A
*1530 ANTENNA__0901__A0
*1531 ANTENNA__0901__A1
*1532 ANTENNA__0901__S
*1533 ANTENNA__0903__A0
*1534 ANTENNA__0903__A1
*1535 ANTENNA__0903__S
*1536 ANTENNA__0905__A0
*1537 ANTENNA__0905__A1
*1538 ANTENNA__0905__S
*1539 ANTENNA__0907__A0
*1540 ANTENNA__0907__A1
*1541 ANTENNA__0907__S
*1542 ANTENNA__0909__A0
*1543 ANTENNA__0909__A1
*1544 ANTENNA__0909__S
*1545 ANTENNA__0911__A
*1546 ANTENNA__0912__A0
*1547 ANTENNA__0912__A1
*1548 ANTENNA__0912__S
*1549 ANTENNA__0914__A0
*1550 ANTENNA__0914__A1
*1551 ANTENNA__0914__S
*1552 ANTENNA__0916__A0
*1553 ANTENNA__0916__A1
*1554 ANTENNA__0916__S
*1555 ANTENNA__0918__A0
*1556 ANTENNA__0918__A1
*1557 ANTENNA__0918__S
*1558 ANTENNA__0920__A0
*1559 ANTENNA__0920__A1
*1560 ANTENNA__0920__S
*1561 ANTENNA__0922__A
*1562 ANTENNA__0923__A0
*1563 ANTENNA__0923__A1
*1564 ANTENNA__0923__S
*1565 ANTENNA__0925__A0
*1566 ANTENNA__0925__A1
*1567 ANTENNA__0925__S
*1568 ANTENNA__0927__A0
*1569 ANTENNA__0927__A1
*1570 ANTENNA__0927__S
*1571 ANTENNA__0929__A0
*1572 ANTENNA__0929__A1
*1573 ANTENNA__0929__S
*1574 ANTENNA__0931__A0
*1575 ANTENNA__0931__A1
*1576 ANTENNA__0931__S
*1577 ANTENNA__0933__A
*1578 ANTENNA__0934__A0
*1579 ANTENNA__0934__A1
*1580 ANTENNA__0934__S
*1581 ANTENNA__0935__A
*1582 ANTENNA__0936__A0
*1583 ANTENNA__0936__A1
*1584 ANTENNA__0936__S
*1585 ANTENNA__0938__A0
*1586 ANTENNA__0938__A1
*1587 ANTENNA__0938__S
*1588 ANTENNA__0940__A0
*1589 ANTENNA__0940__A1
*1590 ANTENNA__0940__S
*1591 ANTENNA__0941__A
*1592 ANTENNA__0942__A0
*1593 ANTENNA__0942__A1
*1594 ANTENNA__0942__S
*1595 ANTENNA__0943__A
*1596 ANTENNA__0944__A0
*1597 ANTENNA__0944__A1
*1598 ANTENNA__0944__S
*1599 ANTENNA__0946__A0
*1600 ANTENNA__0946__A1
*1601 ANTENNA__0946__S
*1602 ANTENNA__0948__C
*1603 ANTENNA__0949__A
*1604 ANTENNA__0949__B
*1605 ANTENNA__0951__A
*1606 ANTENNA__0952__A0
*1607 ANTENNA__0952__A1
*1608 ANTENNA__0952__S
*1609 ANTENNA__0953__A
*1610 ANTENNA__0954__A0
*1611 ANTENNA__0954__A1
*1612 ANTENNA__0954__S
*1613 ANTENNA__0956__A0
*1614 ANTENNA__0956__A1
*1615 ANTENNA__0956__S
*1616 ANTENNA__0958__A0
*1617 ANTENNA__0958__A1
*1618 ANTENNA__0958__S
*1619 ANTENNA__0960__A0
*1620 ANTENNA__0960__A1
*1621 ANTENNA__0960__S
*1622 ANTENNA__0962__A
*1623 ANTENNA__0963__A0
*1624 ANTENNA__0963__A1
*1625 ANTENNA__0963__S
*1626 ANTENNA__0965__A0
*1627 ANTENNA__0965__A1
*1628 ANTENNA__0965__S
*1629 ANTENNA__0967__A0
*1630 ANTENNA__0967__A1
*1631 ANTENNA__0967__S
*1632 ANTENNA__0969__A0
*1633 ANTENNA__0969__A1
*1634 ANTENNA__0969__S
*1635 ANTENNA__0971__A0
*1636 ANTENNA__0971__A1
*1637 ANTENNA__0971__S
*1638 ANTENNA__0973__A
*1639 ANTENNA__0974__A0
*1640 ANTENNA__0974__A1
*1641 ANTENNA__0974__S
*1642 ANTENNA__0975__A
*1643 ANTENNA__0976__A0
*1644 ANTENNA__0976__A1
*1645 ANTENNA__0976__S
*1646 ANTENNA__0978__A0
*1647 ANTENNA__0978__A1
*1648 ANTENNA__0978__S
*1649 ANTENNA__0980__A0
*1650 ANTENNA__0980__A1
*1651 ANTENNA__0980__S
*1652 ANTENNA__0982__A0
*1653 ANTENNA__0982__A1
*1654 ANTENNA__0982__S
*1655 ANTENNA__0985__A0
*1656 ANTENNA__0985__A1
*1657 ANTENNA__0985__S
*1658 ANTENNA__0987__A0
*1659 ANTENNA__0987__A1
*1660 ANTENNA__0987__S
*1661 ANTENNA__0989__A0
*1662 ANTENNA__0989__A1
*1663 ANTENNA__0989__S
*1664 ANTENNA__0991__A0
*1665 ANTENNA__0991__A1
*1666 ANTENNA__0991__S
*1667 ANTENNA__0993__A0
*1668 ANTENNA__0993__A1
*1669 ANTENNA__0993__S
*1670 ANTENNA__0996__A0
*1671 ANTENNA__0996__A1
*1672 ANTENNA__0996__S
*1673 ANTENNA__0998__A0
*1674 ANTENNA__0998__A1
*1675 ANTENNA__0998__S
*1676 ANTENNA__0999__A
*1677 ANTENNA__1000__A0
*1678 ANTENNA__1000__A1
*1679 ANTENNA__1000__S
*1680 ANTENNA__1002__A0
*1681 ANTENNA__1002__A1
*1682 ANTENNA__1002__S
*1683 ANTENNA__1004__A0
*1684 ANTENNA__1004__A1
*1685 ANTENNA__1004__S
*1686 ANTENNA__1007__A0
*1687 ANTENNA__1007__A1
*1688 ANTENNA__1007__S
*1689 ANTENNA__1009__A0
*1690 ANTENNA__1009__A1
*1691 ANTENNA__1009__S
*1692 ANTENNA__1011__A0
*1693 ANTENNA__1011__A1
*1694 ANTENNA__1011__S
*1695 ANTENNA__1012__A
*1696 ANTENNA__1013__A0
*1697 ANTENNA__1013__A1
*1698 ANTENNA__1013__S
*1699 ANTENNA__1015__A0
*1700 ANTENNA__1015__A1
*1701 ANTENNA__1015__S
*1702 ANTENNA__1017__A0
*1703 ANTENNA__1017__A1
*1704 ANTENNA__1017__S
*1705 ANTENNA__1019__A0
*1706 ANTENNA__1019__A1
*1707 ANTENNA__1019__S
*1708 ANTENNA__1021__A
*1709 ANTENNA__1021__B
*1710 ANTENNA__1021__C
*1711 ANTENNA__1021__D_N
*1712 ANTENNA__1022__A
*1713 ANTENNA__1022__B
*1714 ANTENNA__1023__A
*1715 ANTENNA__1024__A
*1716 ANTENNA__1025__A0
*1717 ANTENNA__1025__A1
*1718 ANTENNA__1025__S
*1719 ANTENNA__1027__A0
*1720 ANTENNA__1027__A1
*1721 ANTENNA__1027__S
*1722 ANTENNA__1029__A0
*1723 ANTENNA__1029__A1
*1724 ANTENNA__1029__S
*1725 ANTENNA__1031__A0
*1726 ANTENNA__1031__A1
*1727 ANTENNA__1031__S
*1728 ANTENNA__1033__A0
*1729 ANTENNA__1033__A1
*1730 ANTENNA__1033__S
*1731 ANTENNA__1035__A
*1732 ANTENNA__1036__A0
*1733 ANTENNA__1036__A1
*1734 ANTENNA__1036__S
*1735 ANTENNA__1038__A0
*1736 ANTENNA__1038__A1
*1737 ANTENNA__1038__S
*1738 ANTENNA__1040__A0
*1739 ANTENNA__1040__A1
*1740 ANTENNA__1040__S
*1741 ANTENNA__1042__A0
*1742 ANTENNA__1042__A1
*1743 ANTENNA__1042__S
*1744 ANTENNA__1044__A0
*1745 ANTENNA__1044__A1
*1746 ANTENNA__1044__S
*1747 ANTENNA__1046__A
*1748 ANTENNA__1047__A0
*1749 ANTENNA__1047__A1
*1750 ANTENNA__1047__S
*1751 ANTENNA__1049__A0
*1752 ANTENNA__1049__A1
*1753 ANTENNA__1049__S
*1754 ANTENNA__1051__A0
*1755 ANTENNA__1051__A1
*1756 ANTENNA__1051__S
*1757 ANTENNA__1053__A0
*1758 ANTENNA__1053__A1
*1759 ANTENNA__1053__S
*1760 ANTENNA__1055__A0
*1761 ANTENNA__1055__A1
*1762 ANTENNA__1055__S
*1763 ANTENNA__1057__A
*1764 ANTENNA__1058__A0
*1765 ANTENNA__1058__A1
*1766 ANTENNA__1058__S
*1767 ANTENNA__1060__A0
*1768 ANTENNA__1060__A1
*1769 ANTENNA__1060__S
*1770 ANTENNA__1062__A0
*1771 ANTENNA__1062__A1
*1772 ANTENNA__1062__S
*1773 ANTENNA__1064__A0
*1774 ANTENNA__1064__A1
*1775 ANTENNA__1064__S
*1776 ANTENNA__1066__A0
*1777 ANTENNA__1066__A1
*1778 ANTENNA__1066__S
*1779 ANTENNA__1068__A
*1780 ANTENNA__1069__A0
*1781 ANTENNA__1069__A1
*1782 ANTENNA__1069__S
*1783 ANTENNA__1071__A0
*1784 ANTENNA__1071__A1
*1785 ANTENNA__1071__S
*1786 ANTENNA__1073__A0
*1787 ANTENNA__1073__A1
*1788 ANTENNA__1073__S
*1789 ANTENNA__1075__A0
*1790 ANTENNA__1075__A1
*1791 ANTENNA__1075__S
*1792 ANTENNA__1077__A0
*1793 ANTENNA__1077__A1
*1794 ANTENNA__1077__S
*1795 ANTENNA__1079__A
*1796 ANTENNA__1080__A0
*1797 ANTENNA__1080__A1
*1798 ANTENNA__1080__S
*1799 ANTENNA__1082__A0
*1800 ANTENNA__1082__A1
*1801 ANTENNA__1082__S
*1802 ANTENNA__1084__A0
*1803 ANTENNA__1084__A1
*1804 ANTENNA__1084__S
*1805 ANTENNA__1086__A0
*1806 ANTENNA__1086__A1
*1807 ANTENNA__1086__S
*1808 ANTENNA__1088__A0
*1809 ANTENNA__1088__A1
*1810 ANTENNA__1088__S
*1811 ANTENNA__1090__A0
*1812 ANTENNA__1090__A1
*1813 ANTENNA__1090__S
*1814 ANTENNA__1092__A0
*1815 ANTENNA__1092__A1
*1816 ANTENNA__1092__S
*1817 ANTENNA__1094__A
*1818 ANTENNA__1095__A
*1819 ANTENNA__1096__A
*1820 ANTENNA__1097__A
*1821 ANTENNA__1098__A
*1822 ANTENNA__1099__A
*1823 ANTENNA__1100__A
*1824 ANTENNA__1101__A1
*1825 ANTENNA__1101__A2
*1826 ANTENNA__1101__B1
*1827 ANTENNA__1101__B2
*1828 ANTENNA__1102__A
*1829 ANTENNA__1103__A
*1830 ANTENNA__1104__B_N
*1831 ANTENNA__1105__A
*1832 ANTENNA__1106__A
*1833 ANTENNA__1107__A_N
*1834 ANTENNA__1107__B
*1835 ANTENNA__1107__C
*1836 ANTENNA__1107__D
*1837 ANTENNA__1108__A
*1838 ANTENNA__1109__A1
*1839 ANTENNA__1109__A2
*1840 ANTENNA__1109__B1
*1841 ANTENNA__1109__B2
*1842 ANTENNA__1110__A1
*1843 ANTENNA__1110__A2
*1844 ANTENNA__1110__B1
*1845 ANTENNA__1110__B2
*1846 ANTENNA__1110__C1
*1847 ANTENNA__1111__A1
*1848 ANTENNA__1111__A2
*1849 ANTENNA__1111__B1
*1850 ANTENNA__1112__A
*1851 ANTENNA__1113__A1
*1852 ANTENNA__1113__A2
*1853 ANTENNA__1113__B1
*1854 ANTENNA__1113__B2
*1855 ANTENNA__1114__A
*1856 ANTENNA__1115__A
*1857 ANTENNA__1116__A
*1858 ANTENNA__1117__A1
*1859 ANTENNA__1117__A2
*1860 ANTENNA__1117__B1
*1861 ANTENNA__1117__B2
*1862 ANTENNA__1118__A1
*1863 ANTENNA__1118__A2